* NGSPICE file created from op_amp_lvs_final.ext - technology: sky130A

.subckt sky130_fd_pr__pfet_01v8_lvt_MTZNSY a_50_n136# a_n108_n136# a_n50_n162# w_n144_n198#
X0 a_50_n136# a_n50_n162# a_n108_n136# w_n144_n198# sky130_fd_pr__pfet_01v8_lvt ad=0.29 pd=2.58 as=0.29 ps=2.58 w=1 l=0.5
.ends

.subckt sky130_fd_pr__pfet_01v8_lvt_KVZN99 w_n594_n198# a_500_n136# a_n558_n136# a_n500_n162#
X0 a_500_n136# a_n500_n162# a_n558_n136# w_n594_n198# sky130_fd_pr__pfet_01v8_lvt ad=0.29 pd=2.58 as=0.29 ps=2.58 w=1 l=5
.ends

.subckt cs_p_5 w_n153_n413# m1_170_n270# m1_1670_4650# Vb
Xsky130_fd_pr__pfet_01v8_lvt_MTZNSY_5 m1_170_n270# m1_170_n270# m1_170_n270# w_n153_n413#
+ sky130_fd_pr__pfet_01v8_lvt_MTZNSY
Xsky130_fd_pr__pfet_01v8_lvt_KVZN99_0 w_n153_n413# m1_170_n270# m1_170_n270# m1_170_n270#
+ sky130_fd_pr__pfet_01v8_lvt_KVZN99
Xsky130_fd_pr__pfet_01v8_lvt_MTZNSY_6 m1_170_n270# m1_170_n270# m1_170_n270# w_n153_n413#
+ sky130_fd_pr__pfet_01v8_lvt_MTZNSY
Xsky130_fd_pr__pfet_01v8_lvt_KVZN99_10 w_n153_n413# m1_170_n270# m1_170_n270# m1_170_n270#
+ sky130_fd_pr__pfet_01v8_lvt_KVZN99
Xsky130_fd_pr__pfet_01v8_lvt_KVZN99_21 w_n153_n413# m1_170_n270# Vb Vb sky130_fd_pr__pfet_01v8_lvt_KVZN99
Xsky130_fd_pr__pfet_01v8_lvt_KVZN99_32 w_n153_n413# m1_170_n270# Vb Vb sky130_fd_pr__pfet_01v8_lvt_KVZN99
Xsky130_fd_pr__pfet_01v8_lvt_KVZN99_43 w_n153_n413# m1_170_n270# m1_170_n270# m1_170_n270#
+ sky130_fd_pr__pfet_01v8_lvt_KVZN99
Xsky130_fd_pr__pfet_01v8_lvt_KVZN99_54 w_n153_n413# m1_170_n270# Vb Vb sky130_fd_pr__pfet_01v8_lvt_KVZN99
Xsky130_fd_pr__pfet_01v8_lvt_KVZN99_76 w_n153_n413# m1_170_n270# m1_170_n270# m1_170_n270#
+ sky130_fd_pr__pfet_01v8_lvt_KVZN99
Xsky130_fd_pr__pfet_01v8_lvt_KVZN99_65 w_n153_n413# m1_170_n270# Vb Vb sky130_fd_pr__pfet_01v8_lvt_KVZN99
Xsky130_fd_pr__pfet_01v8_lvt_MTZNSY_10 m1_170_n270# m1_170_n270# m1_170_n270# w_n153_n413#
+ sky130_fd_pr__pfet_01v8_lvt_MTZNSY
Xsky130_fd_pr__pfet_01v8_lvt_KVZN99_1 w_n153_n413# m1_170_n270# Vb Vb sky130_fd_pr__pfet_01v8_lvt_KVZN99
Xsky130_fd_pr__pfet_01v8_lvt_MTZNSY_7 m1_170_n270# m1_170_n270# m1_170_n270# w_n153_n413#
+ sky130_fd_pr__pfet_01v8_lvt_MTZNSY
Xsky130_fd_pr__pfet_01v8_lvt_KVZN99_11 w_n153_n413# m1_170_n270# Vb Vb sky130_fd_pr__pfet_01v8_lvt_KVZN99
Xsky130_fd_pr__pfet_01v8_lvt_KVZN99_22 w_n153_n413# m1_170_n270# m1_170_n270# m1_170_n270#
+ sky130_fd_pr__pfet_01v8_lvt_KVZN99
Xsky130_fd_pr__pfet_01v8_lvt_KVZN99_33 w_n153_n413# m1_170_n270# Vb Vb sky130_fd_pr__pfet_01v8_lvt_KVZN99
Xsky130_fd_pr__pfet_01v8_lvt_KVZN99_44 w_n153_n413# m1_170_n270# m1_1670_4650# Vb
+ sky130_fd_pr__pfet_01v8_lvt_KVZN99
Xsky130_fd_pr__pfet_01v8_lvt_KVZN99_55 w_n153_n413# m1_170_n270# Vb Vb sky130_fd_pr__pfet_01v8_lvt_KVZN99
Xsky130_fd_pr__pfet_01v8_lvt_KVZN99_77 w_n153_n413# m1_170_n270# Vb Vb sky130_fd_pr__pfet_01v8_lvt_KVZN99
Xsky130_fd_pr__pfet_01v8_lvt_KVZN99_66 w_n153_n413# m1_170_n270# m1_170_n270# m1_170_n270#
+ sky130_fd_pr__pfet_01v8_lvt_KVZN99
Xsky130_fd_pr__pfet_01v8_lvt_MTZNSY_11 m1_170_n270# m1_170_n270# m1_170_n270# w_n153_n413#
+ sky130_fd_pr__pfet_01v8_lvt_MTZNSY
Xsky130_fd_pr__pfet_01v8_lvt_KVZN99_2 w_n153_n413# m1_170_n270# Vb Vb sky130_fd_pr__pfet_01v8_lvt_KVZN99
Xsky130_fd_pr__pfet_01v8_lvt_KVZN99_12 w_n153_n413# m1_170_n270# Vb Vb sky130_fd_pr__pfet_01v8_lvt_KVZN99
Xsky130_fd_pr__pfet_01v8_lvt_KVZN99_23 w_n153_n413# m1_170_n270# Vb Vb sky130_fd_pr__pfet_01v8_lvt_KVZN99
Xsky130_fd_pr__pfet_01v8_lvt_KVZN99_34 w_n153_n413# m1_170_n270# m1_1670_4650# Vb
+ sky130_fd_pr__pfet_01v8_lvt_KVZN99
Xsky130_fd_pr__pfet_01v8_lvt_KVZN99_45 w_n153_n413# m1_170_n270# Vb Vb sky130_fd_pr__pfet_01v8_lvt_KVZN99
Xsky130_fd_pr__pfet_01v8_lvt_KVZN99_56 w_n153_n413# m1_170_n270# Vb Vb sky130_fd_pr__pfet_01v8_lvt_KVZN99
Xsky130_fd_pr__pfet_01v8_lvt_KVZN99_78 w_n153_n413# m1_170_n270# Vb Vb sky130_fd_pr__pfet_01v8_lvt_KVZN99
Xsky130_fd_pr__pfet_01v8_lvt_KVZN99_67 w_n153_n413# m1_170_n270# Vb Vb sky130_fd_pr__pfet_01v8_lvt_KVZN99
Xsky130_fd_pr__pfet_01v8_lvt_MTZNSY_8 m1_170_n270# m1_170_n270# m1_170_n270# w_n153_n413#
+ sky130_fd_pr__pfet_01v8_lvt_MTZNSY
Xsky130_fd_pr__pfet_01v8_lvt_KVZN99_3 w_n153_n413# m1_170_n270# Vb Vb sky130_fd_pr__pfet_01v8_lvt_KVZN99
Xsky130_fd_pr__pfet_01v8_lvt_MTZNSY_12 m1_170_n270# m1_170_n270# m1_170_n270# w_n153_n413#
+ sky130_fd_pr__pfet_01v8_lvt_MTZNSY
Xsky130_fd_pr__pfet_01v8_lvt_MTZNSY_9 m1_170_n270# m1_170_n270# m1_170_n270# w_n153_n413#
+ sky130_fd_pr__pfet_01v8_lvt_MTZNSY
Xsky130_fd_pr__pfet_01v8_lvt_KVZN99_13 w_n153_n413# m1_170_n270# Vb Vb sky130_fd_pr__pfet_01v8_lvt_KVZN99
Xsky130_fd_pr__pfet_01v8_lvt_KVZN99_24 w_n153_n413# m1_170_n270# Vb Vb sky130_fd_pr__pfet_01v8_lvt_KVZN99
Xsky130_fd_pr__pfet_01v8_lvt_KVZN99_35 w_n153_n413# m1_170_n270# m1_170_n270# m1_170_n270#
+ sky130_fd_pr__pfet_01v8_lvt_KVZN99
Xsky130_fd_pr__pfet_01v8_lvt_KVZN99_46 w_n153_n413# m1_170_n270# m1_170_n270# m1_170_n270#
+ sky130_fd_pr__pfet_01v8_lvt_KVZN99
Xsky130_fd_pr__pfet_01v8_lvt_KVZN99_57 w_n153_n413# m1_170_n270# Vb Vb sky130_fd_pr__pfet_01v8_lvt_KVZN99
Xsky130_fd_pr__pfet_01v8_lvt_KVZN99_79 w_n153_n413# m1_170_n270# Vb Vb sky130_fd_pr__pfet_01v8_lvt_KVZN99
Xsky130_fd_pr__pfet_01v8_lvt_KVZN99_68 w_n153_n413# m1_170_n270# Vb Vb sky130_fd_pr__pfet_01v8_lvt_KVZN99
Xsky130_fd_pr__pfet_01v8_lvt_MTZNSY_13 m1_170_n270# m1_170_n270# m1_170_n270# w_n153_n413#
+ sky130_fd_pr__pfet_01v8_lvt_MTZNSY
Xsky130_fd_pr__pfet_01v8_lvt_KVZN99_4 w_n153_n413# m1_170_n270# Vb Vb sky130_fd_pr__pfet_01v8_lvt_KVZN99
Xsky130_fd_pr__pfet_01v8_lvt_KVZN99_14 w_n153_n413# m1_170_n270# Vb Vb sky130_fd_pr__pfet_01v8_lvt_KVZN99
Xsky130_fd_pr__pfet_01v8_lvt_KVZN99_25 w_n153_n413# m1_170_n270# Vb Vb sky130_fd_pr__pfet_01v8_lvt_KVZN99
Xsky130_fd_pr__pfet_01v8_lvt_KVZN99_36 w_n153_n413# m1_170_n270# Vb Vb sky130_fd_pr__pfet_01v8_lvt_KVZN99
Xsky130_fd_pr__pfet_01v8_lvt_KVZN99_47 w_n153_n413# m1_170_n270# Vb Vb sky130_fd_pr__pfet_01v8_lvt_KVZN99
Xsky130_fd_pr__pfet_01v8_lvt_KVZN99_58 w_n153_n413# m1_170_n270# Vb Vb sky130_fd_pr__pfet_01v8_lvt_KVZN99
Xsky130_fd_pr__pfet_01v8_lvt_KVZN99_69 w_n153_n413# m1_170_n270# Vb Vb sky130_fd_pr__pfet_01v8_lvt_KVZN99
Xsky130_fd_pr__pfet_01v8_lvt_KVZN99_5 w_n153_n413# m1_170_n270# m1_170_n270# m1_170_n270#
+ sky130_fd_pr__pfet_01v8_lvt_KVZN99
Xsky130_fd_pr__pfet_01v8_lvt_MTZNSY_14 m1_170_n270# m1_170_n270# m1_170_n270# w_n153_n413#
+ sky130_fd_pr__pfet_01v8_lvt_MTZNSY
Xsky130_fd_pr__pfet_01v8_lvt_KVZN99_15 w_n153_n413# m1_170_n270# Vb Vb sky130_fd_pr__pfet_01v8_lvt_KVZN99
Xsky130_fd_pr__pfet_01v8_lvt_KVZN99_26 w_n153_n413# m1_170_n270# m1_170_n270# m1_170_n270#
+ sky130_fd_pr__pfet_01v8_lvt_KVZN99
Xsky130_fd_pr__pfet_01v8_lvt_KVZN99_37 w_n153_n413# m1_170_n270# Vb Vb sky130_fd_pr__pfet_01v8_lvt_KVZN99
Xsky130_fd_pr__pfet_01v8_lvt_KVZN99_48 w_n153_n413# m1_170_n270# Vb Vb sky130_fd_pr__pfet_01v8_lvt_KVZN99
Xsky130_fd_pr__pfet_01v8_lvt_KVZN99_59 w_n153_n413# m1_170_n270# m1_170_n270# m1_170_n270#
+ sky130_fd_pr__pfet_01v8_lvt_KVZN99
Xsky130_fd_pr__pfet_01v8_lvt_MTZNSY_15 m1_170_n270# m1_170_n270# m1_170_n270# w_n153_n413#
+ sky130_fd_pr__pfet_01v8_lvt_MTZNSY
Xsky130_fd_pr__pfet_01v8_lvt_KVZN99_6 w_n153_n413# m1_170_n270# Vb Vb sky130_fd_pr__pfet_01v8_lvt_KVZN99
Xsky130_fd_pr__pfet_01v8_lvt_KVZN99_16 w_n153_n413# m1_170_n270# Vb Vb sky130_fd_pr__pfet_01v8_lvt_KVZN99
Xsky130_fd_pr__pfet_01v8_lvt_KVZN99_27 w_n153_n413# m1_170_n270# Vb Vb sky130_fd_pr__pfet_01v8_lvt_KVZN99
Xsky130_fd_pr__pfet_01v8_lvt_KVZN99_38 w_n153_n413# m1_170_n270# Vb Vb sky130_fd_pr__pfet_01v8_lvt_KVZN99
Xsky130_fd_pr__pfet_01v8_lvt_KVZN99_49 w_n153_n413# m1_170_n270# Vb Vb sky130_fd_pr__pfet_01v8_lvt_KVZN99
Xsky130_fd_pr__pfet_01v8_lvt_MTZNSY_16 m1_170_n270# m1_170_n270# m1_170_n270# w_n153_n413#
+ sky130_fd_pr__pfet_01v8_lvt_MTZNSY
Xsky130_fd_pr__pfet_01v8_lvt_KVZN99_7 w_n153_n413# m1_170_n270# Vb Vb sky130_fd_pr__pfet_01v8_lvt_KVZN99
Xsky130_fd_pr__pfet_01v8_lvt_KVZN99_17 w_n153_n413# m1_170_n270# Vb Vb sky130_fd_pr__pfet_01v8_lvt_KVZN99
Xsky130_fd_pr__pfet_01v8_lvt_KVZN99_28 w_n153_n413# m1_170_n270# Vb Vb sky130_fd_pr__pfet_01v8_lvt_KVZN99
Xsky130_fd_pr__pfet_01v8_lvt_KVZN99_39 w_n153_n413# m1_170_n270# m1_170_n270# m1_170_n270#
+ sky130_fd_pr__pfet_01v8_lvt_KVZN99
Xsky130_fd_pr__pfet_01v8_lvt_MTZNSY_17 m1_170_n270# m1_170_n270# m1_170_n270# w_n153_n413#
+ sky130_fd_pr__pfet_01v8_lvt_MTZNSY
Xsky130_fd_pr__pfet_01v8_lvt_KVZN99_8 w_n153_n413# m1_170_n270# Vb Vb sky130_fd_pr__pfet_01v8_lvt_KVZN99
Xsky130_fd_pr__pfet_01v8_lvt_KVZN99_18 w_n153_n413# m1_170_n270# Vb Vb sky130_fd_pr__pfet_01v8_lvt_KVZN99
Xsky130_fd_pr__pfet_01v8_lvt_KVZN99_29 w_n153_n413# m1_170_n270# Vb Vb sky130_fd_pr__pfet_01v8_lvt_KVZN99
Xsky130_fd_pr__pfet_01v8_lvt_MTZNSY_18 m1_170_n270# m1_170_n270# m1_170_n270# w_n153_n413#
+ sky130_fd_pr__pfet_01v8_lvt_MTZNSY
Xsky130_fd_pr__pfet_01v8_lvt_KVZN99_9 w_n153_n413# m1_170_n270# Vb Vb sky130_fd_pr__pfet_01v8_lvt_KVZN99
Xsky130_fd_pr__pfet_01v8_lvt_KVZN99_19 w_n153_n413# m1_170_n270# m1_170_n270# m1_170_n270#
+ sky130_fd_pr__pfet_01v8_lvt_KVZN99
Xsky130_fd_pr__pfet_01v8_lvt_MTZNSY_19 m1_170_n270# m1_170_n270# m1_170_n270# w_n153_n413#
+ sky130_fd_pr__pfet_01v8_lvt_MTZNSY
Xsky130_fd_pr__pfet_01v8_lvt_MTZNSY_0 m1_170_n270# m1_170_n270# m1_170_n270# w_n153_n413#
+ sky130_fd_pr__pfet_01v8_lvt_MTZNSY
Xsky130_fd_pr__pfet_01v8_lvt_KVZN99_70 w_n153_n413# m1_170_n270# Vb Vb sky130_fd_pr__pfet_01v8_lvt_KVZN99
Xsky130_fd_pr__pfet_01v8_lvt_KVZN99_71 w_n153_n413# m1_170_n270# Vb Vb sky130_fd_pr__pfet_01v8_lvt_KVZN99
Xsky130_fd_pr__pfet_01v8_lvt_KVZN99_60 w_n153_n413# m1_170_n270# Vb Vb sky130_fd_pr__pfet_01v8_lvt_KVZN99
Xsky130_fd_pr__pfet_01v8_lvt_MTZNSY_1 m1_170_n270# m1_170_n270# m1_170_n270# w_n153_n413#
+ sky130_fd_pr__pfet_01v8_lvt_MTZNSY
Xsky130_fd_pr__pfet_01v8_lvt_MTZNSY_2 m1_170_n270# m1_170_n270# m1_170_n270# w_n153_n413#
+ sky130_fd_pr__pfet_01v8_lvt_MTZNSY
Xsky130_fd_pr__pfet_01v8_lvt_KVZN99_50 w_n153_n413# m1_170_n270# m1_170_n270# m1_170_n270#
+ sky130_fd_pr__pfet_01v8_lvt_KVZN99
Xsky130_fd_pr__pfet_01v8_lvt_KVZN99_72 w_n153_n413# m1_170_n270# m1_170_n270# m1_170_n270#
+ sky130_fd_pr__pfet_01v8_lvt_KVZN99
Xsky130_fd_pr__pfet_01v8_lvt_KVZN99_61 w_n153_n413# m1_170_n270# Vb Vb sky130_fd_pr__pfet_01v8_lvt_KVZN99
Xsky130_fd_pr__pfet_01v8_lvt_KVZN99_40 w_n153_n413# m1_170_n270# Vb Vb sky130_fd_pr__pfet_01v8_lvt_KVZN99
Xsky130_fd_pr__pfet_01v8_lvt_KVZN99_51 w_n153_n413# m1_170_n270# Vb Vb sky130_fd_pr__pfet_01v8_lvt_KVZN99
Xsky130_fd_pr__pfet_01v8_lvt_KVZN99_73 w_n153_n413# m1_170_n270# Vb Vb sky130_fd_pr__pfet_01v8_lvt_KVZN99
Xsky130_fd_pr__pfet_01v8_lvt_KVZN99_62 w_n153_n413# m1_170_n270# m1_170_n270# m1_170_n270#
+ sky130_fd_pr__pfet_01v8_lvt_KVZN99
Xsky130_fd_pr__pfet_01v8_lvt_MTZNSY_3 m1_170_n270# m1_170_n270# m1_170_n270# w_n153_n413#
+ sky130_fd_pr__pfet_01v8_lvt_MTZNSY
Xsky130_fd_pr__pfet_01v8_lvt_MTZNSY_4 m1_170_n270# m1_170_n270# m1_170_n270# w_n153_n413#
+ sky130_fd_pr__pfet_01v8_lvt_MTZNSY
Xsky130_fd_pr__pfet_01v8_lvt_KVZN99_30 w_n153_n413# m1_170_n270# m1_170_n270# m1_170_n270#
+ sky130_fd_pr__pfet_01v8_lvt_KVZN99
Xsky130_fd_pr__pfet_01v8_lvt_KVZN99_41 w_n153_n413# m1_170_n270# Vb Vb sky130_fd_pr__pfet_01v8_lvt_KVZN99
Xsky130_fd_pr__pfet_01v8_lvt_KVZN99_52 w_n153_n413# m1_170_n270# Vb Vb sky130_fd_pr__pfet_01v8_lvt_KVZN99
Xsky130_fd_pr__pfet_01v8_lvt_KVZN99_74 w_n153_n413# m1_170_n270# Vb Vb sky130_fd_pr__pfet_01v8_lvt_KVZN99
Xsky130_fd_pr__pfet_01v8_lvt_KVZN99_63 w_n153_n413# m1_170_n270# Vb Vb sky130_fd_pr__pfet_01v8_lvt_KVZN99
Xsky130_fd_pr__pfet_01v8_lvt_KVZN99_20 w_n153_n413# m1_170_n270# Vb Vb sky130_fd_pr__pfet_01v8_lvt_KVZN99
Xsky130_fd_pr__pfet_01v8_lvt_KVZN99_31 w_n153_n413# m1_170_n270# Vb Vb sky130_fd_pr__pfet_01v8_lvt_KVZN99
Xsky130_fd_pr__pfet_01v8_lvt_KVZN99_42 w_n153_n413# m1_170_n270# m1_170_n270# m1_170_n270#
+ sky130_fd_pr__pfet_01v8_lvt_KVZN99
Xsky130_fd_pr__pfet_01v8_lvt_KVZN99_53 w_n153_n413# m1_170_n270# Vb Vb sky130_fd_pr__pfet_01v8_lvt_KVZN99
Xsky130_fd_pr__pfet_01v8_lvt_KVZN99_75 w_n153_n413# m1_170_n270# Vb Vb sky130_fd_pr__pfet_01v8_lvt_KVZN99
Xsky130_fd_pr__pfet_01v8_lvt_KVZN99_64 w_n153_n413# m1_170_n270# Vb Vb sky130_fd_pr__pfet_01v8_lvt_KVZN99
.ends

.subckt sky130_fd_pr__nfet_01v8_lvt_BX6RT7 a_n108_n81# a_50_n81# a_n50_n107# VSUBS
X0 a_50_n81# a_n50_n107# a_n108_n81# VSUBS sky130_fd_pr__nfet_01v8_lvt ad=0.145 pd=1.58 as=0.145 ps=1.58 w=0.5 l=0.5
.ends

.subckt sky130_fd_pr__nfet_01v8_lvt_N42WW9 a_n2000_n107# a_2000_n81# a_n2058_n81#
+ VSUBS
X0 a_2000_n81# a_n2000_n107# a_n2058_n81# VSUBS sky130_fd_pr__nfet_01v8_lvt ad=0.145 pd=1.58 as=0.145 ps=1.58 w=0.5 l=20
.ends

.subckt block03 sky130_fd_pr__nfet_01v8_lvt_N42WW9_5/VSUBS m1_n144_4165# m1_n288_4065#
+ m1_n580_n270#
Xsky130_fd_pr__nfet_01v8_lvt_BX6RT7_10 m1_n580_n270# m1_n580_n270# m1_n580_n270# sky130_fd_pr__nfet_01v8_lvt_N42WW9_5/VSUBS
+ sky130_fd_pr__nfet_01v8_lvt_BX6RT7
Xsky130_fd_pr__nfet_01v8_lvt_BX6RT7_11 m1_n580_n270# m1_n580_n270# m1_n580_n270# sky130_fd_pr__nfet_01v8_lvt_N42WW9_5/VSUBS
+ sky130_fd_pr__nfet_01v8_lvt_BX6RT7
Xsky130_fd_pr__nfet_01v8_lvt_BX6RT7_0 m1_n580_n270# m1_n580_n270# m1_n580_n270# sky130_fd_pr__nfet_01v8_lvt_N42WW9_5/VSUBS
+ sky130_fd_pr__nfet_01v8_lvt_BX6RT7
Xsky130_fd_pr__nfet_01v8_lvt_BX6RT7_1 m1_n580_n270# m1_n580_n270# m1_n580_n270# sky130_fd_pr__nfet_01v8_lvt_N42WW9_5/VSUBS
+ sky130_fd_pr__nfet_01v8_lvt_BX6RT7
Xsky130_fd_pr__nfet_01v8_lvt_N42WW9_1 m1_n144_4165# m1_n580_n270# m1_n144_4165# sky130_fd_pr__nfet_01v8_lvt_N42WW9_5/VSUBS
+ sky130_fd_pr__nfet_01v8_lvt_N42WW9
Xsky130_fd_pr__nfet_01v8_lvt_BX6RT7_2 m1_n580_n270# m1_n580_n270# m1_n580_n270# sky130_fd_pr__nfet_01v8_lvt_N42WW9_5/VSUBS
+ sky130_fd_pr__nfet_01v8_lvt_BX6RT7
Xsky130_fd_pr__nfet_01v8_lvt_N42WW9_0 m1_n144_4165# m1_n580_n270# m1_n288_4065# sky130_fd_pr__nfet_01v8_lvt_N42WW9_5/VSUBS
+ sky130_fd_pr__nfet_01v8_lvt_N42WW9
Xsky130_fd_pr__nfet_01v8_lvt_BX6RT7_4 m1_n580_n270# m1_n580_n270# m1_n580_n270# sky130_fd_pr__nfet_01v8_lvt_N42WW9_5/VSUBS
+ sky130_fd_pr__nfet_01v8_lvt_BX6RT7
Xsky130_fd_pr__nfet_01v8_lvt_N42WW9_2 m1_n144_4165# m1_n580_n270# m1_n144_4165# sky130_fd_pr__nfet_01v8_lvt_N42WW9_5/VSUBS
+ sky130_fd_pr__nfet_01v8_lvt_N42WW9
Xsky130_fd_pr__nfet_01v8_lvt_BX6RT7_3 m1_n580_n270# m1_n580_n270# m1_n580_n270# sky130_fd_pr__nfet_01v8_lvt_N42WW9_5/VSUBS
+ sky130_fd_pr__nfet_01v8_lvt_BX6RT7
Xsky130_fd_pr__nfet_01v8_lvt_N42WW9_3 m1_n144_4165# m1_n580_n270# m1_n288_4065# sky130_fd_pr__nfet_01v8_lvt_N42WW9_5/VSUBS
+ sky130_fd_pr__nfet_01v8_lvt_N42WW9
Xsky130_fd_pr__nfet_01v8_lvt_BX6RT7_5 m1_n580_n270# m1_n580_n270# m1_n580_n270# sky130_fd_pr__nfet_01v8_lvt_N42WW9_5/VSUBS
+ sky130_fd_pr__nfet_01v8_lvt_BX6RT7
Xsky130_fd_pr__nfet_01v8_lvt_N42WW9_4 m1_n580_n270# m1_n580_n270# m1_n580_n270# sky130_fd_pr__nfet_01v8_lvt_N42WW9_5/VSUBS
+ sky130_fd_pr__nfet_01v8_lvt_N42WW9
Xsky130_fd_pr__nfet_01v8_lvt_BX6RT7_6 m1_n580_n270# m1_n580_n270# m1_n580_n270# sky130_fd_pr__nfet_01v8_lvt_N42WW9_5/VSUBS
+ sky130_fd_pr__nfet_01v8_lvt_BX6RT7
Xsky130_fd_pr__nfet_01v8_lvt_BX6RT7_7 m1_n580_n270# m1_n580_n270# m1_n580_n270# sky130_fd_pr__nfet_01v8_lvt_N42WW9_5/VSUBS
+ sky130_fd_pr__nfet_01v8_lvt_BX6RT7
Xsky130_fd_pr__nfet_01v8_lvt_N42WW9_5 m1_n580_n270# m1_n580_n270# m1_n580_n270# sky130_fd_pr__nfet_01v8_lvt_N42WW9_5/VSUBS
+ sky130_fd_pr__nfet_01v8_lvt_N42WW9
Xsky130_fd_pr__nfet_01v8_lvt_BX6RT7_8 m1_n580_n270# m1_n580_n270# m1_n580_n270# sky130_fd_pr__nfet_01v8_lvt_N42WW9_5/VSUBS
+ sky130_fd_pr__nfet_01v8_lvt_BX6RT7
Xsky130_fd_pr__nfet_01v8_lvt_BX6RT7_9 m1_n580_n270# m1_n580_n270# m1_n580_n270# sky130_fd_pr__nfet_01v8_lvt_N42WW9_5/VSUBS
+ sky130_fd_pr__nfet_01v8_lvt_BX6RT7
.ends

.subckt sky130_fd_pr__pfet_01v8_lvt_J88B3D a_100_n236# a_n158_n236# a_n100_n262# w_n194_n298#
X0 a_100_n236# a_n100_n262# a_n158_n236# w_n194_n298# sky130_fd_pr__pfet_01v8_lvt ad=0.58 pd=4.58 as=0.58 ps=4.58 w=2 l=1
.ends

.subckt sky130_fd_pr__pfet_01v8_lvt_J8833D w_n194_n198# a_100_n136# a_n158_n136# a_n100_n162#
X0 a_100_n136# a_n100_n162# a_n158_n136# w_n194_n198# sky130_fd_pr__pfet_01v8_lvt ad=0.29 pd=2.58 as=0.29 ps=2.58 w=1 l=1
.ends

.subckt block01 m1_n299_n1606# m1_n298_n759# m1_n595_n1313# m1_n303_n1187# m1_n581_n1736#
+ w_n1380_n2320#
Xsky130_fd_pr__pfet_01v8_lvt_J88B3D_0 w_n1380_n2320# w_n1380_n2320# w_n1380_n2320#
+ w_n1380_n2320# sky130_fd_pr__pfet_01v8_lvt_J88B3D
Xsky130_fd_pr__pfet_01v8_lvt_J88B3D_1 m1_n581_n1736# w_n1380_n2320# m1_n298_n759#
+ w_n1380_n2320# sky130_fd_pr__pfet_01v8_lvt_J88B3D
Xsky130_fd_pr__pfet_01v8_lvt_J88B3D_2 m1_n595_n1313# w_n1380_n2320# m1_n303_n1187#
+ w_n1380_n2320# sky130_fd_pr__pfet_01v8_lvt_J88B3D
Xsky130_fd_pr__pfet_01v8_lvt_J88B3D_3 m1_n581_n1736# w_n1380_n2320# m1_n298_n759#
+ w_n1380_n2320# sky130_fd_pr__pfet_01v8_lvt_J88B3D
Xsky130_fd_pr__pfet_01v8_lvt_J88B3D_4 m1_n595_n1313# w_n1380_n2320# m1_n303_n1187#
+ w_n1380_n2320# sky130_fd_pr__pfet_01v8_lvt_J88B3D
Xsky130_fd_pr__pfet_01v8_lvt_J88B3D_5 m1_n581_n1736# w_n1380_n2320# m1_n298_n759#
+ w_n1380_n2320# sky130_fd_pr__pfet_01v8_lvt_J88B3D
Xsky130_fd_pr__pfet_01v8_lvt_J88B3D_6 w_n1380_n2320# w_n1380_n2320# w_n1380_n2320#
+ w_n1380_n2320# sky130_fd_pr__pfet_01v8_lvt_J88B3D
Xsky130_fd_pr__pfet_01v8_lvt_J88B3D_7 w_n1380_n2320# w_n1380_n2320# w_n1380_n2320#
+ w_n1380_n2320# sky130_fd_pr__pfet_01v8_lvt_J88B3D
Xsky130_fd_pr__pfet_01v8_lvt_J88B3D_8 w_n1380_n2320# w_n1380_n2320# w_n1380_n2320#
+ w_n1380_n2320# sky130_fd_pr__pfet_01v8_lvt_J88B3D
Xsky130_fd_pr__pfet_01v8_lvt_J88B3D_9 w_n1380_n2320# w_n1380_n2320# w_n1380_n2320#
+ w_n1380_n2320# sky130_fd_pr__pfet_01v8_lvt_J88B3D
Xsky130_fd_pr__pfet_01v8_lvt_J88B3D_30 w_n1380_n2320# w_n1380_n2320# w_n1380_n2320#
+ w_n1380_n2320# sky130_fd_pr__pfet_01v8_lvt_J88B3D
Xsky130_fd_pr__pfet_01v8_lvt_J88B3D_20 m1_n581_n1736# w_n1380_n2320# m1_n299_n1606#
+ w_n1380_n2320# sky130_fd_pr__pfet_01v8_lvt_J88B3D
Xsky130_fd_pr__pfet_01v8_lvt_J88B3D_10 w_n1380_n2320# w_n1380_n2320# w_n1380_n2320#
+ w_n1380_n2320# sky130_fd_pr__pfet_01v8_lvt_J88B3D
Xsky130_fd_pr__pfet_01v8_lvt_J88B3D_21 m1_n595_n1313# w_n1380_n2320# m1_n303_n1187#
+ w_n1380_n2320# sky130_fd_pr__pfet_01v8_lvt_J88B3D
Xsky130_fd_pr__pfet_01v8_lvt_J88B3D_11 m1_n581_n1736# w_n1380_n2320# m1_n298_n759#
+ w_n1380_n2320# sky130_fd_pr__pfet_01v8_lvt_J88B3D
Xsky130_fd_pr__pfet_01v8_lvt_J88B3D_22 w_n1380_n2320# w_n1380_n2320# w_n1380_n2320#
+ w_n1380_n2320# sky130_fd_pr__pfet_01v8_lvt_J88B3D
Xsky130_fd_pr__pfet_01v8_lvt_J88B3D_23 m1_n581_n1736# w_n1380_n2320# m1_n299_n1606#
+ w_n1380_n2320# sky130_fd_pr__pfet_01v8_lvt_J88B3D
Xsky130_fd_pr__pfet_01v8_lvt_J88B3D_12 m1_n595_n1313# w_n1380_n2320# m1_n303_n1187#
+ w_n1380_n2320# sky130_fd_pr__pfet_01v8_lvt_J88B3D
Xsky130_fd_pr__pfet_01v8_lvt_J88B3D_14 m1_n595_n1313# w_n1380_n2320# m1_n303_n1187#
+ w_n1380_n2320# sky130_fd_pr__pfet_01v8_lvt_J88B3D
Xsky130_fd_pr__pfet_01v8_lvt_J88B3D_13 m1_n595_n1313# w_n1380_n2320# m1_n303_n1187#
+ w_n1380_n2320# sky130_fd_pr__pfet_01v8_lvt_J88B3D
Xsky130_fd_pr__pfet_01v8_lvt_J88B3D_24 m1_n581_n1736# w_n1380_n2320# m1_n299_n1606#
+ w_n1380_n2320# sky130_fd_pr__pfet_01v8_lvt_J88B3D
Xsky130_fd_pr__pfet_01v8_lvt_J88B3D_15 m1_n595_n1313# w_n1380_n2320# m1_n303_n1187#
+ w_n1380_n2320# sky130_fd_pr__pfet_01v8_lvt_J88B3D
Xsky130_fd_pr__pfet_01v8_lvt_J88B3D_26 w_n1380_n2320# w_n1380_n2320# w_n1380_n2320#
+ w_n1380_n2320# sky130_fd_pr__pfet_01v8_lvt_J88B3D
Xsky130_fd_pr__pfet_01v8_lvt_J88B3D_16 m1_n581_n1736# w_n1380_n2320# m1_n298_n759#
+ w_n1380_n2320# sky130_fd_pr__pfet_01v8_lvt_J88B3D
Xsky130_fd_pr__pfet_01v8_lvt_J88B3D_27 w_n1380_n2320# w_n1380_n2320# w_n1380_n2320#
+ w_n1380_n2320# sky130_fd_pr__pfet_01v8_lvt_J88B3D
Xsky130_fd_pr__pfet_01v8_lvt_J88B3D_17 m1_n595_n1313# w_n1380_n2320# m1_n303_n1187#
+ w_n1380_n2320# sky130_fd_pr__pfet_01v8_lvt_J88B3D
Xsky130_fd_pr__pfet_01v8_lvt_J88B3D_28 w_n1380_n2320# w_n1380_n2320# w_n1380_n2320#
+ w_n1380_n2320# sky130_fd_pr__pfet_01v8_lvt_J88B3D
Xsky130_fd_pr__pfet_01v8_lvt_J88B3D_18 m1_n595_n1313# w_n1380_n2320# m1_n303_n1187#
+ w_n1380_n2320# sky130_fd_pr__pfet_01v8_lvt_J88B3D
Xsky130_fd_pr__pfet_01v8_lvt_J88B3D_29 w_n1380_n2320# w_n1380_n2320# w_n1380_n2320#
+ w_n1380_n2320# sky130_fd_pr__pfet_01v8_lvt_J88B3D
Xsky130_fd_pr__pfet_01v8_lvt_J88B3D_19 m1_n581_n1736# w_n1380_n2320# m1_n299_n1606#
+ w_n1380_n2320# sky130_fd_pr__pfet_01v8_lvt_J88B3D
Xsky130_fd_pr__pfet_01v8_lvt_J8833D_0 w_n1380_n2320# w_n1380_n2320# w_n1380_n2320#
+ w_n1380_n2320# sky130_fd_pr__pfet_01v8_lvt_J8833D
Xsky130_fd_pr__pfet_01v8_lvt_J8833D_1 w_n1380_n2320# w_n1380_n2320# w_n1380_n2320#
+ w_n1380_n2320# sky130_fd_pr__pfet_01v8_lvt_J8833D
Xsky130_fd_pr__pfet_01v8_lvt_J8833D_3 w_n1380_n2320# w_n1380_n2320# w_n1380_n2320#
+ w_n1380_n2320# sky130_fd_pr__pfet_01v8_lvt_J8833D
Xsky130_fd_pr__pfet_01v8_lvt_J8833D_2 w_n1380_n2320# w_n1380_n2320# w_n1380_n2320#
+ w_n1380_n2320# sky130_fd_pr__pfet_01v8_lvt_J8833D
Xsky130_fd_pr__pfet_01v8_lvt_J8833D_4 w_n1380_n2320# w_n1380_n2320# w_n1380_n2320#
+ w_n1380_n2320# sky130_fd_pr__pfet_01v8_lvt_J8833D
Xsky130_fd_pr__pfet_01v8_lvt_J8833D_5 w_n1380_n2320# w_n1380_n2320# w_n1380_n2320#
+ w_n1380_n2320# sky130_fd_pr__pfet_01v8_lvt_J8833D
Xsky130_fd_pr__pfet_01v8_lvt_J8833D_6 w_n1380_n2320# w_n1380_n2320# w_n1380_n2320#
+ w_n1380_n2320# sky130_fd_pr__pfet_01v8_lvt_J8833D
Xsky130_fd_pr__pfet_01v8_lvt_J8833D_7 w_n1380_n2320# w_n1380_n2320# w_n1380_n2320#
+ w_n1380_n2320# sky130_fd_pr__pfet_01v8_lvt_J8833D
Xsky130_fd_pr__pfet_01v8_lvt_J8833D_8 w_n1380_n2320# w_n1380_n2320# w_n1380_n2320#
+ w_n1380_n2320# sky130_fd_pr__pfet_01v8_lvt_J8833D
Xsky130_fd_pr__pfet_01v8_lvt_J8833D_9 w_n1380_n2320# w_n1380_n2320# w_n1380_n2320#
+ w_n1380_n2320# sky130_fd_pr__pfet_01v8_lvt_J8833D
.ends

.subckt sky130_fd_pr__nfet_01v8_lvt_LTPL8U a_n100_n117# a_100_n91# a_n158_n91# VSUBS
X0 a_100_n91# a_n100_n117# a_n158_n91# VSUBS sky130_fd_pr__nfet_01v8_lvt ad=0.174 pd=1.78 as=0.174 ps=1.78 w=0.6 l=1
.ends

.subckt nmos_08 m1_450_510# m1_310_690# m1_0_0# VSUBS
Xsky130_fd_pr__nfet_01v8_lvt_LTPL8U_0 m1_0_0# m1_0_0# m1_0_0# VSUBS sky130_fd_pr__nfet_01v8_lvt_LTPL8U
Xsky130_fd_pr__nfet_01v8_lvt_LTPL8U_1 m1_0_0# m1_0_0# m1_0_0# VSUBS sky130_fd_pr__nfet_01v8_lvt_LTPL8U
Xsky130_fd_pr__nfet_01v8_lvt_LTPL8U_2 m1_0_0# m1_0_0# m1_0_0# VSUBS sky130_fd_pr__nfet_01v8_lvt_LTPL8U
Xsky130_fd_pr__nfet_01v8_lvt_LTPL8U_3 m1_0_0# m1_0_0# m1_0_0# VSUBS sky130_fd_pr__nfet_01v8_lvt_LTPL8U
Xsky130_fd_pr__nfet_01v8_lvt_LTPL8U_5 m1_0_0# m1_0_0# m1_0_0# VSUBS sky130_fd_pr__nfet_01v8_lvt_LTPL8U
Xsky130_fd_pr__nfet_01v8_lvt_LTPL8U_4 m1_0_0# m1_0_0# m1_0_0# VSUBS sky130_fd_pr__nfet_01v8_lvt_LTPL8U
Xsky130_fd_pr__nfet_01v8_lvt_LTPL8U_6 m1_0_0# m1_0_0# m1_0_0# VSUBS sky130_fd_pr__nfet_01v8_lvt_LTPL8U
Xsky130_fd_pr__nfet_01v8_lvt_LTPL8U_7 m1_0_0# m1_0_0# m1_0_0# VSUBS sky130_fd_pr__nfet_01v8_lvt_LTPL8U
Xsky130_fd_pr__nfet_01v8_lvt_LTPL8U_10 m1_0_0# m1_0_0# m1_0_0# VSUBS sky130_fd_pr__nfet_01v8_lvt_LTPL8U
Xsky130_fd_pr__nfet_01v8_lvt_LTPL8U_8 m1_0_0# m1_0_0# m1_0_0# VSUBS sky130_fd_pr__nfet_01v8_lvt_LTPL8U
Xsky130_fd_pr__nfet_01v8_lvt_LTPL8U_11 m1_0_0# m1_0_0# m1_0_0# VSUBS sky130_fd_pr__nfet_01v8_lvt_LTPL8U
Xsky130_fd_pr__nfet_01v8_lvt_LTPL8U_12 m1_0_0# m1_0_0# m1_0_0# VSUBS sky130_fd_pr__nfet_01v8_lvt_LTPL8U
Xsky130_fd_pr__nfet_01v8_lvt_LTPL8U_9 m1_0_0# m1_0_0# m1_0_0# VSUBS sky130_fd_pr__nfet_01v8_lvt_LTPL8U
Xsky130_fd_pr__nfet_01v8_lvt_LTPL8U_13 m1_450_510# m1_310_690# m1_0_0# VSUBS sky130_fd_pr__nfet_01v8_lvt_LTPL8U
Xsky130_fd_pr__nfet_01v8_lvt_LTPL8U_14 m1_450_510# m1_450_510# m1_0_0# VSUBS sky130_fd_pr__nfet_01v8_lvt_LTPL8U
Xsky130_fd_pr__nfet_01v8_lvt_LTPL8U_15 m1_450_510# m1_450_510# m1_0_0# VSUBS sky130_fd_pr__nfet_01v8_lvt_LTPL8U
Xsky130_fd_pr__nfet_01v8_lvt_LTPL8U_17 m1_0_0# m1_0_0# m1_0_0# VSUBS sky130_fd_pr__nfet_01v8_lvt_LTPL8U
Xsky130_fd_pr__nfet_01v8_lvt_LTPL8U_16 m1_450_510# m1_310_690# m1_0_0# VSUBS sky130_fd_pr__nfet_01v8_lvt_LTPL8U
.ends

.subckt sky130_fd_pr__nfet_01v8_lvt_34DASA a_100_n131# a_n100_n157# a_n158_n131# VSUBS
X0 a_100_n131# a_n100_n157# a_n158_n131# VSUBS sky130_fd_pr__nfet_01v8_lvt ad=0.29 pd=2.58 as=0.29 ps=2.58 w=1 l=1
.ends

.subckt block02 m1_n552_n4379# m1_n560_n3972# sky130_fd_pr__nfet_01v8_lvt_34DASA_9/VSUBS
+ m1_n350_n4530#
Xsky130_fd_pr__nfet_01v8_lvt_34DASA_10 sky130_fd_pr__nfet_01v8_lvt_34DASA_9/VSUBS
+ m1_n350_n4530# m1_n552_n4379# sky130_fd_pr__nfet_01v8_lvt_34DASA_9/VSUBS sky130_fd_pr__nfet_01v8_lvt_34DASA
Xsky130_fd_pr__nfet_01v8_lvt_34DASA_21 sky130_fd_pr__nfet_01v8_lvt_34DASA_9/VSUBS
+ m1_n350_n4530# m1_n560_n3972# sky130_fd_pr__nfet_01v8_lvt_34DASA_9/VSUBS sky130_fd_pr__nfet_01v8_lvt_34DASA
Xsky130_fd_pr__nfet_01v8_lvt_34DASA_32 sky130_fd_pr__nfet_01v8_lvt_34DASA_9/VSUBS
+ sky130_fd_pr__nfet_01v8_lvt_34DASA_9/VSUBS sky130_fd_pr__nfet_01v8_lvt_34DASA_9/VSUBS
+ sky130_fd_pr__nfet_01v8_lvt_34DASA_9/VSUBS sky130_fd_pr__nfet_01v8_lvt_34DASA
Xsky130_fd_pr__nfet_01v8_lvt_34DASA_11 sky130_fd_pr__nfet_01v8_lvt_34DASA_9/VSUBS
+ m1_n350_n4530# m1_n560_n3972# sky130_fd_pr__nfet_01v8_lvt_34DASA_9/VSUBS sky130_fd_pr__nfet_01v8_lvt_34DASA
Xsky130_fd_pr__nfet_01v8_lvt_34DASA_22 sky130_fd_pr__nfet_01v8_lvt_34DASA_9/VSUBS
+ m1_n350_n4530# m1_n560_n3972# sky130_fd_pr__nfet_01v8_lvt_34DASA_9/VSUBS sky130_fd_pr__nfet_01v8_lvt_34DASA
Xsky130_fd_pr__nfet_01v8_lvt_34DASA_33 sky130_fd_pr__nfet_01v8_lvt_34DASA_9/VSUBS
+ sky130_fd_pr__nfet_01v8_lvt_34DASA_9/VSUBS sky130_fd_pr__nfet_01v8_lvt_34DASA_9/VSUBS
+ sky130_fd_pr__nfet_01v8_lvt_34DASA_9/VSUBS sky130_fd_pr__nfet_01v8_lvt_34DASA
Xsky130_fd_pr__nfet_01v8_lvt_34DASA_12 sky130_fd_pr__nfet_01v8_lvt_34DASA_9/VSUBS
+ m1_n350_n4530# m1_n560_n3972# sky130_fd_pr__nfet_01v8_lvt_34DASA_9/VSUBS sky130_fd_pr__nfet_01v8_lvt_34DASA
Xsky130_fd_pr__nfet_01v8_lvt_34DASA_23 sky130_fd_pr__nfet_01v8_lvt_34DASA_9/VSUBS
+ m1_n350_n4530# m1_n552_n4379# sky130_fd_pr__nfet_01v8_lvt_34DASA_9/VSUBS sky130_fd_pr__nfet_01v8_lvt_34DASA
Xsky130_fd_pr__nfet_01v8_lvt_34DASA_34 sky130_fd_pr__nfet_01v8_lvt_34DASA_9/VSUBS
+ sky130_fd_pr__nfet_01v8_lvt_34DASA_9/VSUBS sky130_fd_pr__nfet_01v8_lvt_34DASA_9/VSUBS
+ sky130_fd_pr__nfet_01v8_lvt_34DASA_9/VSUBS sky130_fd_pr__nfet_01v8_lvt_34DASA
Xsky130_fd_pr__nfet_01v8_lvt_34DASA_13 sky130_fd_pr__nfet_01v8_lvt_34DASA_9/VSUBS
+ m1_n350_n4530# m1_n552_n4379# sky130_fd_pr__nfet_01v8_lvt_34DASA_9/VSUBS sky130_fd_pr__nfet_01v8_lvt_34DASA
Xsky130_fd_pr__nfet_01v8_lvt_34DASA_24 sky130_fd_pr__nfet_01v8_lvt_34DASA_9/VSUBS
+ sky130_fd_pr__nfet_01v8_lvt_34DASA_9/VSUBS sky130_fd_pr__nfet_01v8_lvt_34DASA_9/VSUBS
+ sky130_fd_pr__nfet_01v8_lvt_34DASA_9/VSUBS sky130_fd_pr__nfet_01v8_lvt_34DASA
Xsky130_fd_pr__nfet_01v8_lvt_34DASA_35 sky130_fd_pr__nfet_01v8_lvt_34DASA_9/VSUBS
+ sky130_fd_pr__nfet_01v8_lvt_34DASA_9/VSUBS sky130_fd_pr__nfet_01v8_lvt_34DASA_9/VSUBS
+ sky130_fd_pr__nfet_01v8_lvt_34DASA_9/VSUBS sky130_fd_pr__nfet_01v8_lvt_34DASA
Xsky130_fd_pr__nfet_01v8_lvt_34DASA_14 sky130_fd_pr__nfet_01v8_lvt_34DASA_9/VSUBS
+ m1_n350_n4530# m1_n552_n4379# sky130_fd_pr__nfet_01v8_lvt_34DASA_9/VSUBS sky130_fd_pr__nfet_01v8_lvt_34DASA
Xsky130_fd_pr__nfet_01v8_lvt_34DASA_36 sky130_fd_pr__nfet_01v8_lvt_34DASA_9/VSUBS
+ sky130_fd_pr__nfet_01v8_lvt_34DASA_9/VSUBS sky130_fd_pr__nfet_01v8_lvt_34DASA_9/VSUBS
+ sky130_fd_pr__nfet_01v8_lvt_34DASA_9/VSUBS sky130_fd_pr__nfet_01v8_lvt_34DASA
Xsky130_fd_pr__nfet_01v8_lvt_34DASA_25 sky130_fd_pr__nfet_01v8_lvt_34DASA_9/VSUBS
+ sky130_fd_pr__nfet_01v8_lvt_34DASA_9/VSUBS sky130_fd_pr__nfet_01v8_lvt_34DASA_9/VSUBS
+ sky130_fd_pr__nfet_01v8_lvt_34DASA_9/VSUBS sky130_fd_pr__nfet_01v8_lvt_34DASA
Xsky130_fd_pr__nfet_01v8_lvt_34DASA_16 sky130_fd_pr__nfet_01v8_lvt_34DASA_9/VSUBS
+ sky130_fd_pr__nfet_01v8_lvt_34DASA_9/VSUBS sky130_fd_pr__nfet_01v8_lvt_34DASA_9/VSUBS
+ sky130_fd_pr__nfet_01v8_lvt_34DASA_9/VSUBS sky130_fd_pr__nfet_01v8_lvt_34DASA
Xsky130_fd_pr__nfet_01v8_lvt_34DASA_15 sky130_fd_pr__nfet_01v8_lvt_34DASA_9/VSUBS
+ m1_n350_n4530# m1_n560_n3972# sky130_fd_pr__nfet_01v8_lvt_34DASA_9/VSUBS sky130_fd_pr__nfet_01v8_lvt_34DASA
Xsky130_fd_pr__nfet_01v8_lvt_34DASA_37 sky130_fd_pr__nfet_01v8_lvt_34DASA_9/VSUBS
+ sky130_fd_pr__nfet_01v8_lvt_34DASA_9/VSUBS sky130_fd_pr__nfet_01v8_lvt_34DASA_9/VSUBS
+ sky130_fd_pr__nfet_01v8_lvt_34DASA_9/VSUBS sky130_fd_pr__nfet_01v8_lvt_34DASA
Xsky130_fd_pr__nfet_01v8_lvt_34DASA_38 sky130_fd_pr__nfet_01v8_lvt_34DASA_9/VSUBS
+ sky130_fd_pr__nfet_01v8_lvt_34DASA_9/VSUBS sky130_fd_pr__nfet_01v8_lvt_34DASA_9/VSUBS
+ sky130_fd_pr__nfet_01v8_lvt_34DASA_9/VSUBS sky130_fd_pr__nfet_01v8_lvt_34DASA
Xsky130_fd_pr__nfet_01v8_lvt_34DASA_27 sky130_fd_pr__nfet_01v8_lvt_34DASA_9/VSUBS
+ m1_n350_n4530# m1_n560_n3972# sky130_fd_pr__nfet_01v8_lvt_34DASA_9/VSUBS sky130_fd_pr__nfet_01v8_lvt_34DASA
Xsky130_fd_pr__nfet_01v8_lvt_34DASA_26 sky130_fd_pr__nfet_01v8_lvt_34DASA_9/VSUBS
+ m1_n350_n4530# m1_n552_n4379# sky130_fd_pr__nfet_01v8_lvt_34DASA_9/VSUBS sky130_fd_pr__nfet_01v8_lvt_34DASA
Xsky130_fd_pr__nfet_01v8_lvt_34DASA_0 sky130_fd_pr__nfet_01v8_lvt_34DASA_9/VSUBS m1_n350_n4530#
+ m1_n552_n4379# sky130_fd_pr__nfet_01v8_lvt_34DASA_9/VSUBS sky130_fd_pr__nfet_01v8_lvt_34DASA
Xsky130_fd_pr__nfet_01v8_lvt_34DASA_17 sky130_fd_pr__nfet_01v8_lvt_34DASA_9/VSUBS
+ sky130_fd_pr__nfet_01v8_lvt_34DASA_9/VSUBS sky130_fd_pr__nfet_01v8_lvt_34DASA_9/VSUBS
+ sky130_fd_pr__nfet_01v8_lvt_34DASA_9/VSUBS sky130_fd_pr__nfet_01v8_lvt_34DASA
Xsky130_fd_pr__nfet_01v8_lvt_34DASA_39 sky130_fd_pr__nfet_01v8_lvt_34DASA_9/VSUBS
+ sky130_fd_pr__nfet_01v8_lvt_34DASA_9/VSUBS sky130_fd_pr__nfet_01v8_lvt_34DASA_9/VSUBS
+ sky130_fd_pr__nfet_01v8_lvt_34DASA_9/VSUBS sky130_fd_pr__nfet_01v8_lvt_34DASA
Xsky130_fd_pr__nfet_01v8_lvt_34DASA_28 sky130_fd_pr__nfet_01v8_lvt_34DASA_9/VSUBS
+ m1_n350_n4530# m1_n560_n3972# sky130_fd_pr__nfet_01v8_lvt_34DASA_9/VSUBS sky130_fd_pr__nfet_01v8_lvt_34DASA
Xsky130_fd_pr__nfet_01v8_lvt_34DASA_1 sky130_fd_pr__nfet_01v8_lvt_34DASA_9/VSUBS sky130_fd_pr__nfet_01v8_lvt_34DASA_9/VSUBS
+ sky130_fd_pr__nfet_01v8_lvt_34DASA_9/VSUBS sky130_fd_pr__nfet_01v8_lvt_34DASA_9/VSUBS
+ sky130_fd_pr__nfet_01v8_lvt_34DASA
Xsky130_fd_pr__nfet_01v8_lvt_34DASA_18 sky130_fd_pr__nfet_01v8_lvt_34DASA_9/VSUBS
+ m1_n350_n4530# m1_n560_n3972# sky130_fd_pr__nfet_01v8_lvt_34DASA_9/VSUBS sky130_fd_pr__nfet_01v8_lvt_34DASA
Xsky130_fd_pr__nfet_01v8_lvt_34DASA_29 sky130_fd_pr__nfet_01v8_lvt_34DASA_9/VSUBS